BEGIN OPTIONS
  [BOUNDNAMES]
  [TRACK FILEOUT <trackfile>]
  [TRACKCSV FILEOUT <trackcsvfile>]
  [STOPTIME <stoptime>]
  [STOPTRAVELTIME <stoptraveltime>]
  [STOP_AT_WEAK_SINK]
  [ISTOPZONE <istopzone>]
  [DRAPE]
END OPTIONS
