BEGIN OPTIONS
  [BUDGET FILEOUT <budgetfile>]
  [BUDGETCSV FILEOUT <budgetcsvfile>]
  [CONCENTRATION FILEOUT <concentrationfile>]
  [CONCENTRATION PRINT_FORMAT COLUMNS <columns> WIDTH <width> DIGITS <digits> <format>]
  [TRACK FILEOUT <trackfile>]
  [TRACKCSV FILEOUT <trackcsvfile>]
END OPTIONS
